*SPEF "IEEE 1481-1998"
*DESIGN "usb_phy"
*DATE "Wed Feb 12 00:52:24 2014"
*VENDOR "Silicon Perspective, A Cadence Company"
*PROGRAM "Encounter"
*VERSION "10.13-s089_1"
*DESIGN_FLOW "PIN_CAP NONE" "NAME_SCOPE LOCAL"
*DIVIDER /
*DELIMITER :
*BUS_DELIMITER []
*T_UNIT 1 NS
*C_UNIT 1 PF
*R_UNIT 1 OHM
*L_UNIT 1 HENRY

*NAME_MAP

*1 DataOut_i_0_
*2 DataOut_i_1_
*3 DataOut_i_2_
*4 DataOut_i_3_
*5 DataOut_i_4_
*6 DataOut_i_5_
*7 DataOut_i_6_
*8 DataOut_i_7_
*9 TxValid_i
*10 clk
*11 phy_tx_mode
*12 rst
*13 rxd
*14 rxdn
*15 rxdp
*16 DataIn_o_0_
*17 DataIn_o_1_
*18 DataIn_o_2_
*19 DataIn_o_3_
*20 DataIn_o_4_
*21 DataIn_o_5_
*22 DataIn_o_6_
*23 DataIn_o_7_
*24 LineState_o_0_
*25 LineState_o_1_
*26 RxActive_o
*27 RxError_o
*28 RxValid_o
*29 TxReady_o
*30 g1897_u0_o
*31 txdn
*32 txdp
*33 txoe
*34 usb_rst
*35 FE_RN_0_0
*36 FE_RN_1_0
*37 FE_RN_2_0
*38 g11_p
*39 g15_p
*40 g1737_p
*41 g1738_p
*42 g1739_p
*43 g1740_p
*44 g1741_p
*45 g1742_p
*46 g1743_p
*47 g1757_p
*48 g1776_da
*49 g1776_db
*50 g1776_sb
*51 g1777_da
*52 g1777_db
*53 g1777_sb
*54 g1778_da
*55 g1778_db
*56 g1778_sb
*57 g1779_da
*58 g1779_db
*59 g1779_sb
*60 g1780_da
*61 g1780_db
*62 g1780_sb
*63 g1781_da
*64 g1781_db
*65 g1781_sb
*66 g1782_da
*67 g1782_db
*68 g1782_sb
*69 g1855_da
*70 g1855_db
*71 g1855_sb
*72 g1857_p
*73 g1881_p
*74 g1884_p
*75 g1901_p
*76 g1923_p
*77 g1942_p
*78 g1965_p
*79 g1975_p
*80 g1980_p
*81 g2028_p
*82 g2035_p
*83 g2050_p
*84 g2057_p
*85 g2063_da
*86 g2063_db
*87 g2063_sb
*88 g2066_p
*89 g2067_p
*90 g2068_p
*91 g2069_p
*92 g2091_p
*93 g2103_p
*94 g2108_p
*95 g2113_p
*96 g2116_p
*97 g2128_p
*98 g2130_p
*99 g2141_p
*100 g2385_p
*101 g2412_p
*102 g2413_p
*103 g2494_p
*104 g2506_p
*105 g2651_p
*106 g2674_p
*107 g41_p
*108 i_rx_phy_bit_cnt_0_
*109 i_rx_phy_bit_cnt_2_
*110 i_rx_phy_bit_stuff_err
*111 i_rx_phy_bit_stuff_err_reg_Q
*112 i_rx_phy_byte_err
*113 i_rx_phy_byte_err_reg_Q
*114 i_rx_phy_dpll_state_0_
*115 i_rx_phy_dpll_state_1_
*116 i_rx_phy_fs_ce_r1
*117 i_rx_phy_fs_ce_r2
*118 i_rx_phy_fs_state_0_
*119 i_rx_phy_fs_state_2_
*120 i_rx_phy_one_cnt_0_
*121 i_rx_phy_one_cnt_1_
*122 i_rx_phy_one_cnt_2_
*123 i_rx_phy_rx_en
*124 i_rx_phy_rx_valid1
*125 i_rx_phy_rx_valid_r
*126 i_rx_phy_rxd_r
*127 i_rx_phy_rxd_s
*128 i_rx_phy_rxd_s0
*129 i_rx_phy_rxd_s1
*130 i_rx_phy_rxd_s1_reg_Q
*131 i_rx_phy_rxdn_s
*132 i_rx_phy_rxdn_s0
*133 i_rx_phy_rxdn_s_r
*134 i_rx_phy_rxdn_s_r_reg_Q
*135 i_rx_phy_rxdp_s
*136 i_rx_phy_rxdp_s0
*137 i_rx_phy_rxdp_s_r
*138 i_rx_phy_rxdp_s_r_reg_Q
*139 i_rx_phy_sd_nrzi
*140 i_rx_phy_sd_r
*141 i_rx_phy_se0_r
*142 i_rx_phy_se0_r_reg_Q
*143 i_rx_phy_se0_s
*144 i_rx_phy_shift_en
*145 i_rx_phy_sync_err
*146 i_rx_phy_sync_err_reg_Q
*147 i_tx_phy_append_eop
*148 i_tx_phy_append_eop_sync1
*149 i_tx_phy_append_eop_sync2
*150 i_tx_phy_append_eop_sync4
*151 i_tx_phy_bit_cnt_0_
*152 i_tx_phy_bit_cnt_1_
*153 i_tx_phy_bit_cnt_2_
*154 i_tx_phy_data_done
*155 i_tx_phy_hold_reg
*156 i_tx_phy_hold_reg_10
*157 i_tx_phy_hold_reg_4
*158 i_tx_phy_hold_reg_5
*159 i_tx_phy_hold_reg_6
*160 i_tx_phy_hold_reg_7
*161 i_tx_phy_hold_reg_8
*162 i_tx_phy_hold_reg_9
*163 i_tx_phy_hold_reg_d
*164 i_tx_phy_hold_reg_d_11
*165 i_tx_phy_hold_reg_d_12
*166 i_tx_phy_hold_reg_d_13
*167 i_tx_phy_hold_reg_d_14
*168 i_tx_phy_hold_reg_d_15
*169 i_tx_phy_hold_reg_d_17
*170 i_tx_phy_hold_reg_d_reg_1__Q
*171 i_tx_phy_hold_reg_d_reg_3__Q
*172 i_tx_phy_hold_reg_d_reg_5__Q
*173 i_tx_phy_hold_reg_d_reg_6__Q
*174 i_tx_phy_ld_data
*175 i_tx_phy_ld_data_reg_Q
*176 i_tx_phy_one_cnt_0_
*177 i_tx_phy_one_cnt_1_
*178 i_tx_phy_one_cnt_2_
*179 i_tx_phy_sd_bs_o
*180 i_tx_phy_sd_nrzi_o
*181 i_tx_phy_sd_raw_o
*182 i_tx_phy_sft_done
*183 i_tx_phy_sft_done_r
*184 i_tx_phy_state_1_
*185 i_tx_phy_state_2_
*186 i_tx_phy_tx_ip
*187 i_tx_phy_txoe_r1
*188 i_tx_phy_txoe_r2
*189 n_10
*190 n_100
*191 n_103
*192 n_105
*193 n_106
*194 n_108
*195 n_11
*196 n_111
*197 n_112
*198 n_115
*199 n_116
*200 n_118
*201 n_12
*202 n_120
*203 n_121
*204 n_122
*205 n_123
*206 n_124
*207 n_125
*208 n_126
*209 n_127
*210 n_130
*211 n_131
*212 n_132
*213 n_133
*214 n_138
*215 n_139
*216 n_141
*217 n_142
*218 n_15
*219 n_150
*220 n_152
*221 n_153
*222 n_154
*223 n_155
*224 n_157
*225 n_161
*226 n_163
*227 n_164
*228 n_165
*229 n_166
*230 n_167
*231 n_168
*232 n_169
*233 n_170
*234 n_172
*235 n_175
*236 n_176
*237 n_18
*238 n_182
*239 n_183
*240 n_184
*241 n_185
*242 n_186
*243 n_191
*244 n_192
*245 n_193
*246 n_195
*247 n_197
*248 n_198
*249 n_201
*250 n_203
*251 n_204
*252 n_209
*253 n_21
*254 n_210
*255 n_213
*256 n_217
*257 n_22
*258 n_222
*259 n_223
*260 n_224
*261 n_225
*262 n_226
*263 n_227
*264 n_228
*265 n_229
*266 n_230
*267 n_231
*268 n_232
*269 n_233
*270 n_235
*271 n_237
*272 n_238
*273 n_239
*274 n_240
*275 n_241
*276 n_243
*277 n_244
*278 n_245
*279 n_246
*280 n_248
*281 n_251
*282 n_252
*283 n_254
*284 n_255
*285 n_256
*286 n_257
*287 n_258
*288 n_259
*289 n_263
*290 n_265
*291 n_266
*292 n_267
*293 n_268
*294 n_269
*295 n_27
*296 n_273
*297 n_274
*298 n_275
*299 n_276
*300 n_277
*301 n_278
*302 n_28
*303 n_280
*304 n_283
*305 n_288
*306 n_289
*307 n_290
*308 n_291
*309 n_292
*310 n_293
*311 n_294
*312 n_296
*313 n_297
*314 n_299
*315 n_300
*316 n_301
*317 n_304
*318 n_306
*319 n_307
*320 n_308
*321 n_309
*322 n_310
*323 n_311
*324 n_312
*325 n_313
*326 n_316
*327 n_317
*328 n_318
*329 n_319
*330 n_320
*331 n_322
*332 n_323
*333 n_324
*334 n_325
*335 n_33
*336 n_330
*337 n_331
*338 n_332
*339 n_333
*340 n_334
*341 n_337
*342 n_338
*343 n_339
*344 n_340
*345 n_341
*346 n_342
*347 n_343
*348 n_344
*349 n_347
*350 n_35
*351 n_350
*352 n_351
*353 n_352
*354 n_353
*355 n_354
*356 n_355
*357 n_359
*358 n_360
*359 n_361
*360 n_362
*361 n_364
*362 n_365
*363 n_366
*364 n_367
*365 n_368
*366 n_369
*367 n_37
*368 n_370
*369 n_373
*370 n_375
*371 n_377
*372 n_378
*373 n_380
*374 n_384
*375 n_385
*376 n_386
*377 n_387
*378 n_388
*379 n_389
*380 n_390
*381 n_391
*382 n_392
*383 n_394
*384 n_395
*385 n_400
*386 n_401
*387 n_404
*388 n_405
*389 n_406
*390 n_407
*391 n_409
*392 n_410
*393 n_411
*394 n_413
*395 n_414
*396 n_415
*397 n_416
*398 n_417
*399 n_420
*400 n_421
*401 n_423
*402 n_424
*403 n_425
*404 n_426
*405 n_427
*406 n_428
*407 n_431
*408 n_432
*409 n_433
*410 n_434
*411 n_435
*412 n_436
*413 n_439
*414 n_440
*415 n_443
*416 n_444
*417 n_446
*418 n_447
*419 n_449
*420 n_450
*421 n_452
*422 n_453
*423 n_454
*424 n_455
*425 n_456
*426 n_457
*427 n_458
*428 n_459
*429 n_460
*430 n_461
*431 n_462
*432 n_471
*433 n_472
*434 n_479
*435 n_48
*436 n_480
*437 n_481
*438 n_482
*439 n_483
*440 n_484
*441 n_485
*442 n_486
*443 n_487
*444 n_489
*445 n_49
*446 n_490
*447 n_492
*448 n_493
*449 n_499
*450 n_50
*451 n_505
*452 n_506
*453 n_507
*454 n_509
*455 n_51
*456 n_511
*457 n_52
*458 n_523
*459 n_529
*460 n_53
*461 n_538
*462 n_539
*463 n_54
*464 n_540
*465 n_55
*466 n_559
*467 n_56
*468 n_567
*469 n_57
*470 n_573
*471 n_574
*472 n_58
*473 n_583
*474 n_588
*475 n_590
*476 n_593
*477 n_598
*478 n_60
*479 n_604
*480 n_61
*481 n_628
*482 n_629
*483 n_63
*484 n_631
*485 n_632
*486 n_64
*487 n_66
*488 n_660
*489 n_661
*490 n_665
*491 n_666
*492 n_69
*493 n_697
*494 n_699
*495 n_7
*496 n_70
*497 n_700
*498 n_701
*499 n_703
*500 n_704
*501 n_706
*502 n_707
*503 n_708
*504 n_709
*505 n_71
*506 n_710
*507 n_722
*508 n_726
*509 n_727
*510 n_734
*511 n_735
*512 n_737
*513 n_74
*514 n_741
*515 n_742
*516 n_743
*517 n_748
*518 n_749
*519 n_752
*520 n_753
*521 n_754
*522 n_755
*523 n_756
*524 n_758
*525 n_759
*526 n_763
*527 n_764
*528 n_767
*529 n_77
*530 n_782
*531 n_783
*532 n_785
*533 n_786
*534 n_788
*535 n_794
*536 n_796
*537 n_8
*538 n_800
*539 n_804
*540 n_81
*541 n_840
*542 n_841
*543 n_85
*544 n_852
*545 n_864
*546 n_873
*547 n_878
*548 n_88
*549 n_882
*550 n_884
*551 n_885
*552 n_888
*553 n_894
*554 n_9
*555 n_90
*556 n_91
*557 n_910
*558 n_911
*559 n_913
*560 n_914
*561 n_915
*562 n_916
*563 n_919
*564 n_920
*565 n_921
*566 n_922
*567 n_923
*568 n_924
*569 n_925
*570 n_926
*571 n_927
*572 n_928
*573 n_929
*574 n_930
*575 n_932
*576 n_933
*577 n_934
*578 n_935
*579 n_937
*580 n_938
*581 n_940
*582 n_941
*583 n_942
*584 n_943
*585 n_944
*586 n_945
*587 n_947
*588 n_948
*589 n_949
*590 n_951
*591 n_952
*592 n_957
*593 n_958
*594 n_959
*595 n_960
*596 n_961
*597 n_962
*598 n_963
*599 n_965
*600 n_966
*601 n_967
*602 n_968
*603 n_969
*604 n_97
*605 n_970
*606 n_971
*607 n_972
*608 n_974
*609 n_976
*610 n_977
*611 n_980
*612 n_981
*613 n_982
*614 n_984
*615 n_988
*616 n_989
*617 n_990
*618 n_991
*619 n_992
*620 rst_cnt_0_
*621 rst_cnt_1_
*622 rst_cnt_3_
*623 rst_cnt_4_
*624 FE_RC_0_0
*625 FE_RC_1_0
*626 FE_RC_2_0
*627 FE_RC_3_0
*628 g10_u0
*629 g11_u0
*630 g11_u1
*631 g12_u0
*632 g13_u0
*633 g14_u0
*634 g15_u0
*635 g15_u1
*636 g1649_u0
*637 g1653_u0
*638 g1661_u0
*639 g1680_u0
*640 g1681_u0
*641 g1695_u0
*642 g1696_u0
*643 g1697_u0
*644 g1702_u0
*645 g1703_u0
*646 g1707_u0
*647 g1709_u0
*648 g1711_u0
*649 g1717_u0
*650 g1718_u0
*651 g1719_u0
*652 g1724_u0
*653 g1725_u0
*654 g1726_u0
*655 g1728_u0
*656 g1729_u0
*657 g1731_u0
*658 g1733_u0
*659 g1734_u0
*660 g1736_u0
*661 g1737_u0
*662 g1737_u1
*663 g1738_u0
*664 g1738_u1
*665 g1739_u0
*666 g1739_u1
*667 g1740_u0
*668 g1740_u1
*669 g1741_u0
*670 g1741_u1
*671 g1742_u0
*672 g1742_u1
*673 g1743_u0
*674 g1743_u1
*675 g1744_u0
*676 g1745_u0
*677 g1746_u0
*678 g1747_u0
*679 g1748_u0
*680 g1757_u0
*681 g1757_u1
*682 g1758_u0
*683 g1759_u0
*684 g1760_u0
*685 g1762_u0
*686 g1763_u0
*687 g1764_u0
*688 g1774_u0
*689 g1775_u0
*690 g1776_u0
*691 g1776_u1
*692 g1776_u2
*693 g1776_u3
*694 g1777_u0
*695 g1777_u1
*696 g1777_u2
*697 g1777_u3
*698 g1778_u0
*699 g1778_u1
*700 g1778_u2
*701 g1778_u3
*702 g1779_u0
*703 g1779_u1
*704 g1779_u2
*705 g1779_u3
*706 g1780_u0
*707 g1780_u1
*708 g1780_u2
*709 g1780_u3
*710 g1781_u0
*711 g1781_u1
*712 g1781_u2
*713 g1781_u3
*714 g1782_u0
*715 g1782_u1
*716 g1782_u2
*717 g1782_u3
*718 g1806_u0
*719 g1807_u0
*720 g1808_u0
*721 g1809_u0
*722 g1810_u0
*723 g1811_u0
*724 g1812_u0
*725 g1813_u0
*726 g1814_u0
*727 g1815_u0
*728 g1816_u0
*729 g1817_u0
*730 g1819_u0
*731 g1820_u0
*732 g1821_u0
*733 g1822_u0
*734 g1824_u0
*735 g1828_u0
*736 g1830_u0
*737 g1837_u0
*738 g1838_u0
*739 g1840_u0
*740 g1841_u0
*741 g1842_u0
*742 g1843_u0
*743 g1844_u0
*744 g1845_u0
*745 g1846_u0
*746 g1848_u0
*747 g1849_u0
*748 g1851_u0
*749 g1852_u0
*750 g1853_u0
*751 g1854_u0
*752 g1855_u0
*753 g1855_u1
*754 g1855_u2
*755 g1855_u3
*756 g1856_u0
*757 g1857_u0
*758 g1857_u1
*759 g1858_u0
*760 g1859_u0
*761 g1860_u0
*762 g1865_u0
*763 g1867_u0
*764 g1868_u0
*765 g1869_u0
*766 g1870_u0
*767 g1871_u0
*768 g1872_u0
*769 g1873_u0
*770 g1874_u0
*771 g1875_u0
*772 g1876_u0
*773 g1877_u0
*774 g1878_u0
*775 g1879_u0
*776 g1880_u0
*777 g1881_u0
*778 g1881_u1
*779 g1882_u0
*780 g1884_u0
*781 g1884_u1
*782 g1894_u0
*783 g1896_u0
*784 g1897_u0
*785 g1899_u0
*786 g1900_u0
*787 g1901_u0
*788 g1901_u1
*789 g1902_u0
*790 g1903_u0
*791 g1904_u0
*792 g1905_u0
*793 g1906_u0
*794 g1907_u0
*795 g1908_u0
*796 g1913_u0
*797 g1914_u0
*798 g1915_u0
*799 g1916_u0
*800 g1917_u0
*801 g1918_u0
*802 g1919_u0
*803 g1921_u0
*804 g1922_u0
*805 g1923_u0
*806 g1923_u1
*807 g1924_u0
*808 g1925_u0
*809 g1926_u0
*810 g1927_u0
*811 g1928_u0
*812 g1931_u0
*813 g1932_u0
*814 g1933_u0
*815 g1934_u0
*816 g1935_u0
*817 g1936_u0
*818 g1937_u0
*819 g1942_u0
*820 g1942_u1
*821 g1950_u0
*822 g1951_u0
*823 g1952_u0
*824 g1953_u0
*825 g1954_u0
*826 g1955_u0
*827 g1956_u0
*828 g1958_u0
*829 g1959_u0
*830 g1961_u0
*831 g1962_u0
*832 g1963_u0
*833 g1964_u0
*834 g1965_u0
*835 g1965_u1
*836 g1966_u0
*837 g1967_u0
*838 g1968_u0
*839 g1973_u0
*840 g1974_u0
*841 g1975_u0
*842 g1975_u1
*843 g1977_u0
*844 g1978_u0
*845 g1979_u0
*846 g1980_u0
*847 g1980_u1
*848 g1981_u0
*849 g1982_u0
*850 g1983_u0
*851 g1984_u0
*852 g1985_u0
*853 g1986_u0
*854 g1987_u0
*855 g1991_u0
*856 g1998_u0
*857 g2000_u0
*858 g2003_u0
*859 g2010_u0
*860 g2011_u0
*861 g2012_u0
*862 g2014_u0
*863 g2015_u0
*864 g2016_u0
*865 g2020_u0
*866 g2024_u0
*867 g2026_u0
*868 g2027_u0
*869 g2028_u0
*870 g2028_u1
*871 g2029_u0
*872 g2030_u0
*873 g2035_u0
*874 g2035_u1
*875 g2036_u0
*876 g2038_u0
*877 g2040_u0
*878 g2042_u0
*879 g2043_u0
*880 g2048_u0
*881 g2050_u0
*882 g2050_u1
*883 g2051_u0
*884 g2052_u0
*885 g2053_u0
*886 g2054_u0
*887 g2055_u0
*888 g2056_u0
*889 g2057_u0
*890 g2057_u1
*891 g2058_u0
*892 g2059_u0
*893 g2060_u0
*894 g2061_u0
*895 g2062_u0
*896 g2063_u0
*897 g2063_u1
*898 g2063_u2
*899 g2063_u3
*900 g2064_u0
*901 g2065_u0
*902 g2066_u0
*903 g2066_u1
*904 g2067_u0
*905 g2067_u1
*906 g2068_u0
*907 g2068_u1
*908 g2069_u0
*909 g2069_u1
*910 g2072_u0
*911 g2084_u0
*912 g2087_u0
*913 g2088_u0
*914 g2090_u0
*915 g2091_u0
*916 g2091_u1
*917 g2092_u0
*918 g2093_u0
*919 g2095_u0
*920 g2096_u0
*921 g2099_u0
*922 g20_u0
*923 g2100_u0
*924 g2103_u0
*925 g2103_u1
*926 g2104_u0
*927 g2106_u0
*928 g2108_u0
*929 g2108_u1
*930 g2109_u0
*931 g2111_u0
*932 g2112_u0
*933 g2113_u0
*934 g2113_u1
*935 g2114_u0
*936 g2115_u0
*937 g2116_u0
*938 g2116_u1
*939 g2117_u0
*940 g2118_u0
*941 g2119_u0
*942 g2122_u0
*943 g2123_u0
*944 g2124_u0
*945 g2127_u0
*946 g2128_u0
*947 g2128_u1
*948 g2129_u0
*949 g2130_u0
*950 g2130_u1
*951 g2131_u0
*952 g2135_u0
*953 g2136_u0
*954 g2137_u0
*955 g2138_u0
*956 g2139_u0
*957 g2140_u0
*958 g2141_u0
*959 g2141_u1
*960 g2145_u0
*961 g2149_u0
*962 g2152_u0
*963 g2155_u0
*964 g2157_u0
*965 g2158_u0
*966 g2159_u0
*967 g2160_u0
*968 g2161_u0
*969 g2162_u0
*970 g2164_u0
*971 g2172_u0
*972 g2173_u0
*973 g2174_u0
*974 g2178_u0
*975 g2182_u0
*976 g2183_u0
*977 g2186_u0
*978 g2190_u0
*979 g2194_u0
*980 g2195_u0
*981 g2218_u0
*982 g2219_u0
*983 g2224_u0
*984 g2225_u0
*985 g2226_u0
*986 g2227_u0
*987 g2251_u0
*988 g2253_u0
*989 g2254_u0
*990 g2257_u0
*991 g2258_u0
*992 g2270_u0
*993 g2272_u0
*994 g2273_u0
*995 g2275_u0
*996 g2278_u0
*997 g22_u0
*998 g2385_u0
*999 g2385_u1
*1000 g2389_u0
*1001 g2390_u0
*1002 g2392_u0
*1003 g2397_u0
*1004 g23_u0
*1005 g2412_u0
*1006 g2412_u1
*1007 g2413_u0
*1008 g2413_u1
*1009 g2415_u0
*1010 g2431_u0
*1011 g2438_u0
*1012 g2440_u0
*1013 g2459_u0
*1014 g2460_u0
*1015 g2461_u0
*1016 g2463_u0
*1017 g2464_u0
*1018 g2465_u0
*1019 g2466_u0
*1020 g2477_u0
*1021 g2479_u0
*1022 g2482_u0
*1023 g2487_u0
*1024 g2491_u0
*1025 g2494_u0
*1026 g2494_u1
*1027 g2495_u0
*1028 g2497_u0
*1029 g24_u0
*1030 g2501_u0
*1031 g2502_u0
*1032 g2503_u0
*1033 g2504_u0
*1034 g2505_u0
*1035 g2506_u0
*1036 g2506_u1
*1037 g2508_u0
*1038 g2511_u0
*1039 g2512_u0
*1040 g2513_u0
*1041 g2527_u0
*1042 g2537_u0
*1043 g2568_u0
*1044 g2573_u0
*1045 g2584_u0
*1046 g2593_u0
*1047 g2595_u0
*1048 g2599_u0
*1049 g25_u0
*1050 g2601_u0
*1051 g2604_u0
*1052 g2610_u0
*1053 g2620_u0
*1054 g2621_u0
*1055 g2622_u0
*1056 g2623_u0
*1057 g2624_u0
*1058 g2625_u0
*1059 g2626_u0
*1060 g2627_u0
*1061 g2628_u0
*1062 g2630_u0
*1063 g2632_u0
*1064 g2634_u0
*1065 g2635_u0
*1066 g2636_u0
*1067 g2637_u0
*1068 g2638_u0
*1069 g2639_u0
*1070 g2640_u0
*1071 g2642_u0
*1072 g2643_u0
*1073 g2644_u0
*1074 g2645_u0
*1075 g2646_u0
*1076 g2648_u0
*1077 g2650_u0
*1078 g2651_u0
*1079 g2651_u1
*1080 g2652_u0
*1081 g2653_u0
*1082 g2654_u0
*1083 g2655_u0
*1084 g2656_u0
*1085 g2657_u0
*1086 g2658_u0
*1087 g2660_u0
*1088 g2661_u0
*1089 g2662_u0
*1090 g2664_u0
*1091 g2665_u0
*1092 g2667_u0
*1093 g2668_u0
*1094 g2669_u0
*1095 g2670_u0
*1096 g2671_u0
*1097 g2672_u0
*1098 g2674_u0
*1099 g2676_u0
*1100 g2677_u0
*1101 g26_u0
*1102 g27_u0
*1103 g31_u0
*1104 g32_u0
*1105 g33_u0
*1106 g34_u0
*1107 g35_u0
*1108 g36_u0
*1109 g39_u0
*1110 g40_u0
*1111 g41_u0
*1112 g41_u1
*1113 g42_u0
*1114 g44_u0
*1115 g51_u0
*1116 g54_u0
*1117 g56_u0
*1118 g57_u0
*1119 g58_u0
*1120 g61_u0
*1121 g64_u0
*1122 i_rx_phy_bit_cnt_reg_0__u0
*1123 i_rx_phy_bit_cnt_reg_1__u0
*1124 i_rx_phy_bit_cnt_reg_2__u0
*1125 i_rx_phy_bit_stuff_err_reg_u0
*1126 i_rx_phy_bit_stuff_err_reg_u1
*1127 i_rx_phy_byte_err_reg_u0
*1128 i_rx_phy_byte_err_reg_u1
*1129 i_rx_phy_dpll_state_reg_0__u0
*1130 i_rx_phy_dpll_state_reg_1__u0
*1131 i_rx_phy_fs_ce_r1_reg_u0
*1132 i_rx_phy_fs_ce_r2_reg_u0
*1133 i_rx_phy_fs_ce_reg_u0
*1134 i_rx_phy_fs_state_reg_0__u0
*1135 i_rx_phy_fs_state_reg_1__u0
*1136 i_rx_phy_fs_state_reg_2__u0
*1137 i_rx_phy_hold_reg_reg_0__u0
*1138 i_rx_phy_hold_reg_reg_1__u0
*1139 i_rx_phy_hold_reg_reg_2__u0
*1140 i_rx_phy_hold_reg_reg_3__u0
*1141 i_rx_phy_hold_reg_reg_4__u0
*1142 i_rx_phy_hold_reg_reg_5__u0
*1143 i_rx_phy_hold_reg_reg_6__u0
*1144 i_rx_phy_hold_reg_reg_7__u0
*1145 i_rx_phy_one_cnt_reg_0__u0
*1146 i_rx_phy_one_cnt_reg_1__u0
*1147 i_rx_phy_one_cnt_reg_2__u0
*1148 i_rx_phy_rx_active_reg_u0
*1149 i_rx_phy_rx_en_reg_u0
*1150 i_rx_phy_rx_valid1_reg_u0
*1151 i_rx_phy_rx_valid_r_reg_u0
*1152 i_rx_phy_rx_valid_reg_u0
*1153 i_rx_phy_rxd_r_reg_u0
*1154 i_rx_phy_rxd_s0_reg_u0
*1155 i_rx_phy_rxd_s1_reg_u0
*1156 i_rx_phy_rxd_s1_reg_u1
*1157 i_rx_phy_rxd_s_reg_u0
*1158 i_rx_phy_rxdn_s0_reg_u0
*1159 i_rx_phy_rxdn_s1_reg_u0
*1160 i_rx_phy_rxdn_s_r_reg_u0
*1161 i_rx_phy_rxdn_s_r_reg_u1
*1162 i_rx_phy_rxdn_s_reg_u0
*1163 i_rx_phy_rxdp_s0_reg_u0
*1164 i_rx_phy_rxdp_s1_reg_u0
*1165 i_rx_phy_rxdp_s_r_reg_u0
*1166 i_rx_phy_rxdp_s_r_reg_u1
*1167 i_rx_phy_rxdp_s_reg_u0
*1168 i_rx_phy_sd_nrzi_reg_u0
*1169 i_rx_phy_sd_r_reg_u0
*1170 i_rx_phy_se0_r_reg_u0
*1171 i_rx_phy_se0_r_reg_u1
*1172 i_rx_phy_se0_s_reg_u0
*1173 i_rx_phy_shift_en_reg_u0
*1174 i_rx_phy_sync_err_reg_u0
*1175 i_rx_phy_sync_err_reg_u1
*1176 i_tx_phy_TxReady_o_reg_u0
*1177 i_tx_phy_append_eop_reg_u0
*1178 i_tx_phy_append_eop_sync1_reg_u0
*1179 i_tx_phy_append_eop_sync2_reg_u0
*1180 i_tx_phy_append_eop_sync3_reg_u0
*1181 i_tx_phy_append_eop_sync4_reg_u0
*1182 i_tx_phy_bit_cnt_reg_0__u0
*1183 i_tx_phy_bit_cnt_reg_1__u0
*1184 i_tx_phy_bit_cnt_reg_2__u0
*1185 i_tx_phy_data_done_reg_u0
*1186 i_tx_phy_hold_reg_d_reg_0__u0
*1187 i_tx_phy_hold_reg_d_reg_1__u0
*1188 i_tx_phy_hold_reg_d_reg_1__u1
*1189 i_tx_phy_hold_reg_d_reg_2__u0
*1190 i_tx_phy_hold_reg_d_reg_3__u0
*1191 i_tx_phy_hold_reg_d_reg_3__u1
*1192 i_tx_phy_hold_reg_d_reg_4__u0
*1193 i_tx_phy_hold_reg_d_reg_5__u0
*1194 i_tx_phy_hold_reg_d_reg_5__u1
*1195 i_tx_phy_hold_reg_d_reg_6__u0
*1196 i_tx_phy_hold_reg_d_reg_6__u1
*1197 i_tx_phy_hold_reg_d_reg_7__u0
*1198 i_tx_phy_hold_reg_reg_0__u0
*1199 i_tx_phy_hold_reg_reg_1__u0
*1200 i_tx_phy_hold_reg_reg_2__u0
*1201 i_tx_phy_hold_reg_reg_3__u0
*1202 i_tx_phy_hold_reg_reg_4__u0
*1203 i_tx_phy_hold_reg_reg_5__u0
*1204 i_tx_phy_hold_reg_reg_6__u0
*1205 i_tx_phy_hold_reg_reg_7__u0
*1206 i_tx_phy_ld_data_reg_u0
*1207 i_tx_phy_ld_data_reg_u1
*1208 i_tx_phy_one_cnt_reg_0__u0
*1209 i_tx_phy_one_cnt_reg_1__u0
*1210 i_tx_phy_one_cnt_reg_2__u0
*1211 i_tx_phy_sd_bs_o_reg_u0
*1212 i_tx_phy_sd_nrzi_o_reg_u0
*1213 i_tx_phy_sd_raw_o_reg_u0
*1214 i_tx_phy_sft_done_r_reg_u0
*1215 i_tx_phy_sft_done_reg_u0
*1216 i_tx_phy_state_reg_0__u0
*1217 i_tx_phy_state_reg_1__u0
*1218 i_tx_phy_state_reg_2__u0
*1219 i_tx_phy_tx_ip_reg_u0
*1220 i_tx_phy_tx_ip_sync_reg_u0
*1221 i_tx_phy_txdn_reg_u0
*1222 i_tx_phy_txdp_reg_u0
*1223 i_tx_phy_txoe_r1_reg_u0
*1224 i_tx_phy_txoe_r2_reg_u0
*1225 i_tx_phy_txoe_reg_u0
*1226 rst_cnt_reg_0__u0
*1227 rst_cnt_reg_1__u0
*1228 rst_cnt_reg_2__u0
*1229 rst_cnt_reg_3__u0
*1230 rst_cnt_reg_4__u0
*1231 usb_rst_reg_u0


*PORTS

*1 I *C 211 267
*2 I *C 269 203
*3 I *C 224 267
*4 I *C 269 187
*5 I *C 224 267
*6 I *C 182 267
*7 I *C 177 267
*8 I *C 269 196
*9 I *C 87 267
*10 I *C 141 267
*11 I *C 125 267
*12 I *C 0 143
*13 I *C 0 114
*14 I *C 175 267
*15 I *C 199 267
*16 O *C 187 267
*17 O *C 193 267
*18 O *C 199 267
*19 O *C 196 267
*20 O *C 189 267
*21 O *C 199 267
*22 O *C 269 123
*23 O *C 202 0
*24 O *C 182 267
*25 O *C 198 267
*26 O *C 136 0
*27 O *C 269 70
*28 O *C 177 0
*29 O *C 72 267
*30 O *C 269 82
*31 O *C 0 136
*32 O *C 130 267
*33 O *C 0 114
*34 O *C 192 267


*D_NET *1 0.0157419

*CONN
*I *691:a I *C 161 212 *L 0.012 *D na02s10
*P *1 I *C 211 267 *L 0

*CAP
1 *1:1 0.00157768
2 *1:2 7.88138e-05
3 *1:3 0.00157768
4 *691:a 7.88138e-05
5 *1:5 0.000135827
6 *1:6 0.000135827
7 *1:7 0.000595547
8 *1:8 0.000595547
9 *1:9 0.00361508
10 *1:10 0.00361508
11 *1:11 0.00156502
12 *1:12 0.00156502
13 *1:13 0.000302998
14 *1 0.000302998

*RES
1 *1:13 *1 10.7557
2 *1:12 *1:13 6.7
3 *1:11 *1:12 66.9573
4 *1:10 *1:11 6.7
5 *1:9 *1:10 128.327
6 *1:8 *1:9 6.7
7 *1:7 *1:8 26.2775
8 *1:6 *1:7 6.7
9 *1:5 *1:6 4.82152
10 *1:3 *1:5 6.7
11 *1:2 *691:a 2.70234
12 *1:1 *1:3 68.5927
13 *1:0 *1:2 6.7
14 *1:0 *1:1 6.7
*END

*D_NET *2 0.00919604

*CONN
*P *2 I *C 269 203 *L 0
*I *695:a I *C 207 203 *L 0.006 *D na02s08

*CAP
1 *2:1 0.00458676
2 *2:2 1.12591e-05
3 *2 0.00458676
4 *695:a 1.12591e-05

*RES
1 *2:2 *695:a 0.386049
2 *2:1 *2 199.544
3 *2:0 *2:2 6.7
4 *2:0 *2:1 6.7
*END

*D_NET *3 0.00576741

*CONN
*I *699:a I *C 206 245 *L 0.003 *D na02s04
*P *3 I *C 224 267 *L 0

*CAP
1 *3:1 4.17928e-05
2 *3:2 4.17928e-05
3 *3:3 0.00127468
4 *3:4 0.00127468
5 *3:5 0.00156723
6 *3 0.00156723

*RES
1 *3:5 *3 55.6329
2 *3:4 *3:5 6.7
3 *3:3 *3:4 56.243
4 *3:2 *3:3 6.7
5 *3:1 *3:2 1.48354
6 *699:a *3:1 6.7
*END

*D_NET *4 0.00911358

*CONN
*I *703:a I *C 208 187 *L 0.012 *D na02s10
*P *4 I *C 269 187 *L 0

*CAP
1 *4:1 0.00011493
2 *4:2 6.75547e-05
3 *4:3 0.00011493
4 *703:a 6.75547e-05
5 *4:6 0.000821915
6 *4:7 0.000821915
7 *4:9 0.00289415
8 *4:10 0.0029046
9 *4:11 0.000658237
10 *4 0.000647788

*RES
1 *4:11 *4 25.7437
2 *4:10 *4:11 0.370886
3 *4:9 *4:10 124.32
4 *4:8 *4:9 6.7
5 *4:7 *4:8 6.7
6 *4:6 *4:7 33.2036
7 *4:5 *4:6 6.7
8 *4:3 *4:5 6.7
9 *4:2 *703:a 2.31629
10 *4:1 *4:3 4.1739
11 *4:0 *4:2 6.7
12 *4:0 *4:1 6.7
*END

*D_NET *5 0.00693923

*CONN
*I *707:a I *C 207 236 *L 0.006 *D na02s08
*P *5 I *C 224 267 *L 0

*CAP
1 *5:0 1.12591e-05
2 *5:1 0.00022986
3 *707:a 1.12591e-05
4 *5:3 0.00022986
5 *5:4 0.00119109
6 *5:5 0.00119109
7 *5:6 0.0020374
8 *5 0.0020374

*RES
1 *5:6 *5 72.3228
2 *5:5 *5:6 6.7
3 *5:4 *5:5 52.5549
4 *5:3 *5:4 6.7
5 *5:1 *5:3 8.1595
6 *5:0 *707:a 0.386049
7 *5:0 *5:1 6.7
*END

*D_NET *6 0.0127888

*CONN
*I *711:a I *C 168 193 *L 0.024 *D na02s20
*P *6 I *C 182 267 *L 0

*CAP
1 *6:1 0.000773167
2 *6:2 0.000146368
3 *6:3 0.000783615
4 *711:a 0.000146368
5 *6:5 1.04482e-05
6 *6:6 0.00490021
7 *6:7 0.00491065
8 *6:8 0.000564203
9 *6 0.000553755

*RES
1 *6:8 *6 23.0816
2 *6:7 *6:8 0.370886
3 *6:6 *6:7 174.434
4 *6:5 *6:6 6.7
5 *6:3 *6:5 0.370886
6 *6:2 *711:a 6.26219
7 *6:1 *6:3 27.4456
8 *6:0 *6:2 6.7
9 *6:0 *6:1 6.7
*END

*D_NET *7 0.0138726

*CONN
*I *715:a I *C 150 202 *L 0.024 *D na02s20
*P *7 I *C 177 267 *L 0

*CAP
1 *7:0 0.000168887
2 *7:1 0.000104482
3 *715:a 0.000168887
4 *7:3 0.000104482
5 *7:4 0.00040748
6 *7:5 0.000417928
7 *7:6 1.04482e-05
8 *7:7 0.00438824
9 *7:8 0.00438824
10 *7:9 0.00155376
11 *7:10 0.00155376
12 *7:11 0.000302998
13 *7 0.000302998

*RES
1 *7:11 *7 10.7557
2 *7:10 *7:11 6.7
3 *7:9 *7:10 61.884
4 *7:8 *7:9 6.7
5 *7:7 *7:8 155.772
6 *7:6 *7:7 6.7
7 *7:5 *7:6 0.370886
8 *7:4 *7:5 14.4646
9 *7:3 *7:4 6.7
10 *7:1 *7:3 3.70886
11 *7:0 *715:a 6.41251
12 *7:0 *7:1 6.7
*END

*D_NET *8 0.00935566

*CONN
*P *8 I *C 269 196 *L 0
*I *725:b I *C 205 196 *L 0.024 *D na02s20

*CAP
1 *8:1 0.00428376
2 *8:2 0.000394069
3 *8 0.00428376
4 *725:b 0.000394069

*RES
1 *8:2 *725:b 13.5117
2 *8:1 *8 184.507
3 *8:0 *8:2 6.7
4 *8:0 *8:1 6.7
*END

*D_NET *9 0.0209673

*CONN
*I *940:a I *C 15 195 *L 0.012 *D na02s10
*I *1087:c I *C 81 198 *L 0.0855 *D na03m80
*P *9 I *C 87 267 *L 0

*CAP
1 *9:0 7.88138e-05
2 *9:1 5.2241e-05
3 *940:a 7.88138e-05
4 *9:3 5.2241e-05
5 *9:4 0.00136235
6 *9:5 0.00136235
7 *9:6 8.35856e-05
8 *9:7 8.35856e-05
9 *9:8 0.00319759
10 *9:9 0.00319759
11 *9:10 0.000125378
12 *9:11 0.000125378
13 *1087:c 0.000495401
14 *9:13 0.000495401
15 *9:14 0.00508827
16 *9 0.00508827

*RES
1 *9:14 *9 180.622
2 *9:13 *9:14 6.7
3 *1087:c *9:13 16.9862
4 *9:11 *1087:c 6.7
5 *9:10 *9:11 4.45063
6 *9:9 *9:10 6.7
7 *9:8 *9:9 133.218
8 *9:7 *9:8 6.7
9 *9:6 *9:7 2.96709
10 *9:5 *9:6 6.7
11 *9:4 *9:5 58.2866
12 *9:3 *9:4 6.7
13 *9:1 *9:3 1.85443
14 *9:0 *940:a 2.70234
15 *9:0 *9:1 6.7
*END

*D_NET *11 0.0205011

*CONN
*I *915:a I *C 110 168 *L 0.048 *D no02s40
*P *11 I *C 125 267 *L 0
*I *965:a I *C 106 190 *L 0.016 *D in01s10

*CAP
1 *915:a 0.000303996
2 *11:1 0.000326514
3 *11:2 0.000743101
4 *11:3 0.000720583
5 *11:4 0.00108661
6 *11:5 0.00109706
7 *11:6 0.000564203
8 *11:7 0.0060913
9 *11:8 0.00553755
10 *11:9 0.00153589
11 *11:10 0.0002477
12 *11:11 0.00153589
13 *11:12 0.0002477
14 *11:13 6.26892e-05
15 *11:14 0.000146275
16 *11:15 6.26892e-05
17 *11 0.000146275
18 *11:17 2.25182e-05
19 *965:a 2.25182e-05

*RES
1 *11:17 *965:a 0.772098
2 *11:15 *11:17 6.7
3 *11:14 *11 5.19241
4 *11:13 *11:15 2.22532
5 *11:12 *11:14 6.7
6 *11:11 *11:13 6.7
7 *11:10 *11:12 8.93675
8 *11:9 *11:11 62.6312
9 *11:8 *11:10 6.7
10 *11:7 *11:9 6.7
11 *11:7 *11:8 198.11
12 *11:6 *11:7 23.4421
13 *11:5 *11:6 0.370886
14 *11:4 *11:5 38.5722
15 *11:3 *11:4 6.7
16 *11:2 *11:3 29.4422
17 *11:1 *11:2 0.772098
18 *915:a *11:1 13.0061
*END

*D_NET *12 0.113415

*CONN
*P *12 I *C 0 143 *L 0
*I *793:b I *C 22 143 *L 0.024 *D na02m20
*I *1081:b I *C 17 140 *L 0.006 *D na02s08
*I *980:a I *C 20 130 *L 0.016 *D in01s10
*I *627:a I *C 21 166 *L 0.016 *D in01s10
*I *782:c I *C 54 144 *L 0.011 *D na03s10
*I *940:b I *C 12 195 *L 0.012 *D na02s10
*I *759:c I *C 88 143 *L 0.001 *D na04f01
*I *728:c I *C 87 120 *L 0.0015 *D na03s02
*I *734:c I *C 131 90 *L 0.0025 *D na04s04
*I *1037:c I *C 144 87 *L 0.0015 *D na03s02
*I *924:a I *C 91 147 *L 0.024 *D na02s20
*I *1101:c I *C 105 72 *L 0.002 *D na03s03
*I *791:b I *C 105 157 *L 0.001 *D na02s01
*I *741:b I *C 140 180 *L 0.0015 *D na02m02
*I *680:b I *C 94 222 *L 0.003 *D na02m04

*CAP
1 *12:1 3.13446e-05
2 *12:2 3.13446e-05
3 *12:5 0.00174362
4 *12:6 0.00202384
5 *12:7 0.000529312
6 *12:8 0.000360024
7 *12:9 0.00015568
8 *12:10 0.00102749
9 *12:11 0.0014401
10 *12:13 0.00102749
11 *12:14 1.5568e-05
12 *12:15 0.00108007
13 *12:17 0.000653856
14 *12:18 1.5568e-05
15 *12:19 0.000295792
16 *12:21 0.000653856
17 *12:22 8.6765e-06
18 *12:23 0.000295792
19 *12:25 0.00234016
20 *12:26 9.3408e-05
21 *12:27 8.6765e-06
22 *12:29 4.17928e-05
23 *12:30 0.00234016
24 *12:31 0.00126008
25 *12:34 4.17928e-05
26 *12:35 0.00046704
27 *12:36 0.00126008
28 *12:40 0.00122987
29 *12:41 0.0023352
30 *12:44 0.00315021
31 *12:45 0.000762832
32 *12:46 0.00616493
33 *12:48 1.04482e-05
34 *12:49 0.00315021
35 *12:51 0.00135009
36 *12:52 0.00382973
37 *12:54 1.04482e-05
38 *12:55 0.00171248
39 *12:57 0.00135009
40 *12:58 0.00252017
41 *12:60 0.00171248
42 *12:63 0.00126008
43 *12:64 0.00126008
44 *12:65 8.6765e-06
45 *12:68 0.000170975
46 *12:69 0.00527755
47 *12:70 8.6765e-06
48 *12:71 1.04482e-05
49 *12:73 0.000372624
50 *12:74 7.7819e-05
51 *12:75 0.00513744
52 *12:76 0.000140112
53 *12:78 1.04482e-05
54 *12:80 0.000279468
55 *12:82 0.00324022
56 *12:87 0.000270018
57 *12:89 0.00351023
58 *12:93 0.000270018
59 *12:94 4.17928e-05
60 *12:95 0.000358064
61 *12:96 0.00180012
62 *12:100 3.1052e-05
63 *12:101 4.17928e-05
64 *12:102 0.000358064
65 *12:103 0.00108976
66 *12:104 0.0015301
67 *12:107 0.00130471
68 *12:110 0.00108976
69 *12:111 0.00330042
70 *12:112 1.04482e-05
71 *12:114 0.00136706
72 *12:118 0.00330042
73 *12:119 1.04482e-05
74 *12:121 0.00046704
75 *12:126 2.25182e-05
76 *12:128 0.000373632
77 *728:c 2.25182e-05
78 *12:134 0.00117008
79 *12:135 1.04482e-05
80 *12:138 1.04482e-05
81 *12:139 0.00351023
82 *12:140 1.04482e-05
83 *12:143 1.04482e-05
84 *12:144 0.00693046
85 *12:145 0.000108976
86 *12:148 3.13446e-05
87 *12:150 0.0038453
88 *12:151 0.00459031
89 *12:152 0.000108976
90 *12:153 3.13446e-05
91 *12:154 0.0038453
92 *12:155 0.00130771
93 *12:158 8.6765e-06
94 *12:159 0.00130771
95 *12:161 8.6765e-06
96 *12:168 4.17928e-05
97 *12:169 1.04482e-05
98 *12:171 4.17928e-05
99 *12:172 1.04482e-05
100 *12:173 3.13446e-05
101 *12:175 2.25182e-05
102 *12:176 3.13446e-05
103 *791:b 2.25182e-05

*RES
1 *12:177 *680:b 6.7
2 *12:176 *741:b 6.7
3 *12:175 *791:b 0.772098
4 *12:174 *12:177 6.7
5 *12:173 *12:176 1.11266
6 *12:172 *12:175 6.7
7 *12:171 *12:174 6.7
8 *12:170 *12:173 6.7
9 *12:169 *12:172 0.370886
10 *12:168 *12:171 1.48354
11 *12:167 *12:170 6.7
12 *12:166 *12:169 6.7
13 *12:165 *12:168 6.7
14 *12:164 *12:167 6.7
15 *12:163 *12:166 6.7
16 *12:162 *12:165 6.7
17 *12:161 *12:164 6.7
18 *12:160 *12:163 6.7
19 *12:159 *12:162 0.27
20 *12:158 *12:161 0.370886
21 *12:156 *12:160 6.7
22 *12:155 *12:159 0.716431
23 *12:154 *12:158 0.27
24 *12:153 *1101:c 6.7
25 *12:152 *12:156 0.27
26 *12:151 *12:155 0.27
27 *12:150 *12:154 2.10665
28 *12:148 *12:153 1.11266
29 *12:145 *12:152 0.0597026
30 *12:144 *12:151 2.60986
31 *12:144 *12:150 0.27
32 *12:143 *924:a 6.7
33 *12:142 *12:148 6.7
34 *12:141 *1037:c 6.7
35 *12:140 *734:c 6.7
36 *12:139 *12:145 0.27
37 *12:139 *12:144 1.33052
38 *12:138 *12:143 0.370886
39 *12:137 *12:142 6.7
40 *12:136 *12:141 6.7
41 *12:135 *12:140 0.461008
42 *12:134 *12:139 0.665258
43 *12:133 *12:138 6.7
44 *12:131 *12:137 6.7
45 *12:130 *12:136 6.7
46 *12:129 *12:135 6.7
47 *12:128 *12:134 0.27
48 *12:127 *12:133 6.7
49 *12:126 *728:c 0.772098
50 *12:125 *12:131 6.7
51 *12:124 *12:130 6.7
52 *12:123 *12:129 6.7
53 *12:121 *12:128 0.204695
54 *12:120 *12:127 6.7
55 *12:119 *12:126 6.7
56 *12:118 *12:125 0.27
57 *12:117 *12:124 6.7
58 *12:116 *12:123 6.7
59 *12:115 *759:c 6.7
60 *12:114 *12:121 0.0511737
61 *12:113 *12:120 6.7
62 *12:112 *12:119 0.379445
63 *12:111 *12:118 1.80814
64 *12:110 *12:117 0.27
65 *12:109 *12:116 6.7
66 *12:108 *12:115 6.7
67 *12:107 *12:114 0.699373
68 *12:107 *12:113 0.27
69 *12:105 *12:112 6.7
70 *12:104 *12:111 0.27
71 *12:103 *12:110 0.597026
72 *12:102 *12:109 0.27
73 *12:101 *12:108 6.7
74 *12:100 *12:107 0.0170579
75 *12:98 *940:b 6.7
76 *12:97 *12:105 6.7
77 *12:96 *12:104 0.869952
78 *12:96 *12:103 0.27
79 *12:95 *12:102 0.196166
80 *12:94 *12:101 1.48354
81 *12:93 *12:100 0.27
82 *12:92 *782:c 6.7
83 *12:91 *12:98 6.7
84 *12:90 *12:97 6.7
85 *12:89 *12:96 0.153521
86 *12:89 *12:95 0.27
87 *12:88 *12:94 6.7
88 *12:87 *12:93 0.153521
89 *12:86 *12:92 6.7
90 *12:84 *12:91 6.7
91 *12:83 *12:90 6.7
92 *12:82 *12:89 1.84225
93 *12:81 *12:88 6.7
94 *12:80 *12:87 0.27
95 *12:79 *12:86 6.7
96 *12:78 *627:a 6.7